data_MOR_block_none
_audit_creation_date              2019-12-10
_audit_creation_method            'Materials Studio'
_symmetry_space_group_name_H-M    'P1'
_symmetry_Int_Tables_number       1
_symmetry_cell_setting            triclinic
loop_
_symmetry_equiv_pos_as_xyz
  x,y,z
_cell_length_a                    18.1100
_cell_length_b                    20.5300
_cell_length_c                    7.52800
_cell_angle_alpha                 90.0000
_cell_angle_beta                  90.0000
_cell_angle_gamma                 90.0000
loop_
_atom_site_label
_atom_site_type_symbol
_atom_site_fract_x
_atom_site_fract_y
_atom_site_fract_z
_atom_site_U_iso_or_equiv
_atom_site_adp_type
_atom_site_occupancy
O1     O     0.37570   0.09240   0.92430   0.00000  Uiso   1.00
O2     O     0.23910   0.12230   0.99920   0.00000  Uiso   1.00
O3     O     0.37570   0.30580   0.92420   0.00000  Uiso   1.00
Si4    Si    0.30570   0.07360   0.04350   0.00000  Uiso   1.00
Si5    Si    0.30280   0.31060   0.04370   0.00000  Uiso   1.00
O6     O     0.87570   0.59240   0.92430   0.00000  Uiso   1.00
O7     O     0.73910   0.62230   0.99920   0.00000  Uiso   1.00
O8     O     0.87570   0.80580   0.92420   0.00000  Uiso   1.00
Si9    Si    0.80570   0.57360   0.04350   0.00000  Uiso   1.00
Si10   Si    0.80280   0.81060   0.04370   0.00000  Uiso   1.00
O11    O     0.62430   0.90760   0.42430   0.00000  Uiso   1.00
O12    O     0.76090   0.87770   0.49920   0.00000  Uiso   1.00
O13    O     0.62430   0.69420   0.42420   0.00000  Uiso   1.00
Si14   Si    0.69430   0.92640   0.54350   0.00000  Uiso   1.00
Si15   Si    0.69720   0.68940   0.54370   0.00000  Uiso   1.00
O16    O     0.12430   0.40760   0.42430   0.00000  Uiso   1.00
O17    O     0.26090   0.37770   0.49920   0.00000  Uiso   1.00
O18    O     0.12430   0.19420   0.42420   0.00000  Uiso   1.00
Si19   Si    0.19430   0.42640   0.54350   0.00000  Uiso   1.00
Si20   Si    0.19720   0.18940   0.54370   0.00000  Uiso   1.00
O21    O     0.62430   0.09240   0.57570   0.00000  Uiso   1.00
O22    O     0.76090   0.12230   0.50080   0.00000  Uiso   1.00
O23    O     0.62430   0.30580   0.57580   0.00000  Uiso   1.00
Si24   Si    0.69430   0.07360   0.45650   0.00000  Uiso   1.00
Si25   Si    0.69720   0.31060   0.45630   0.00000  Uiso   1.00
O26    O     0.12430   0.59240   0.57570   0.00000  Uiso   1.00
O27    O     0.26090   0.62230   0.50080   0.00000  Uiso   1.00
O28    O     0.12430   0.80580   0.57580   0.00000  Uiso   1.00
Si29   Si    0.19430   0.57360   0.45650   0.00000  Uiso   1.00
Si30   Si    0.19720   0.81060   0.45630   0.00000  Uiso   1.00
O31    O     0.37570   0.90760   0.07570   0.00000  Uiso   1.00
O32    O     0.23910   0.87770   0.00080   0.00000  Uiso   1.00
O33    O     0.37570   0.69420   0.07580   0.00000  Uiso   1.00
Si34   Si    0.30570   0.92640   0.95650   0.00000  Uiso   1.00
Si35   Si    0.30280   0.68940   0.95630   0.00000  Uiso   1.00
O36    O     0.87570   0.40760   0.07570   0.00000  Uiso   1.00
O37    O     0.73910   0.37770   0.00080   0.00000  Uiso   1.00
O38    O     0.87570   0.19420   0.07580   0.00000  Uiso   1.00
Si39   Si    0.80570   0.42640   0.95650   0.00000  Uiso   1.00
Si40   Si    0.80280   0.18940   0.95630   0.00000  Uiso   1.00
O41    O     0.62430   0.90760   0.07570   0.00000  Uiso   1.00
O42    O     0.76090   0.87770   0.00080   0.00000  Uiso   1.00
O43    O     0.62430   0.69420   0.07580   0.00000  Uiso   1.00
Si44   Si    0.69430   0.92640   0.95650   0.00000  Uiso   1.00
Si45   Si    0.69720   0.68940   0.95630   0.00000  Uiso   1.00
O46    O     0.12430   0.40760   0.07570   0.00000  Uiso   1.00
O47    O     0.26090   0.37770   0.00080   0.00000  Uiso   1.00
O48    O     0.12430   0.19420   0.07580   0.00000  Uiso   1.00
Si49   Si    0.19430   0.42640   0.95650   0.00000  Uiso   1.00
Si50   Si    0.19720   0.18940   0.95630   0.00000  Uiso   1.00
O51    O     0.37570   0.09240   0.57570   0.00000  Uiso   1.00
O52    O     0.23910   0.12230   0.50080   0.00000  Uiso   1.00
O53    O     0.37570   0.30580   0.57580   0.00000  Uiso   1.00
Si54   Si    0.30570   0.07360   0.45650   0.00000  Uiso   1.00
Si55   Si    0.30280   0.31060   0.45630   0.00000  Uiso   1.00
O56    O     0.87570   0.59240   0.57570   0.00000  Uiso   1.00
O57    O     0.73910   0.62230   0.50080   0.00000  Uiso   1.00
O58    O     0.87570   0.80580   0.57580   0.00000  Uiso   1.00
Si59   Si    0.80570   0.57360   0.45650   0.00000  Uiso   1.00
Si60   Si    0.80280   0.81060   0.45630   0.00000  Uiso   1.00
O61    O     0.37570   0.90760   0.42430   0.00000  Uiso   1.00
O62    O     0.23910   0.87770   0.49920   0.00000  Uiso   1.00
O63    O     0.37570   0.69420   0.42420   0.00000  Uiso   1.00
Si64   Si    0.30570   0.92640   0.54350   0.00000  Uiso   1.00
Si65   Si    0.30280   0.68940   0.54370   0.00000  Uiso   1.00
O66    O     0.87570   0.40760   0.42430   0.00000  Uiso   1.00
O67    O     0.73910   0.37770   0.49920   0.00000  Uiso   1.00
O68    O     0.87570   0.19420   0.42420   0.00000  Uiso   1.00
Si69   Si    0.80570   0.42640   0.54350   0.00000  Uiso   1.00
Si70   Si    0.80280   0.18940   0.54370   0.00000  Uiso   1.00
O71    O     0.62430   0.09240   0.92430   0.00000  Uiso   1.00
O72    O     0.76090   0.12230   0.99920   0.00000  Uiso   1.00
O73    O     0.62430   0.30580   0.92420   0.00000  Uiso   1.00
Si74   Si    0.69430   0.07360   0.04350   0.00000  Uiso   1.00
Si75   Si    0.69720   0.31060   0.04370   0.00000  Uiso   1.00
O76    O     0.12430   0.59240   0.92430   0.00000  Uiso   1.00
O77    O     0.26090   0.62230   0.99920   0.00000  Uiso   1.00
O78    O     0.12430   0.80580   0.92420   0.00000  Uiso   1.00
Si79   Si    0.19430   0.57360   0.04350   0.00000  Uiso   1.00
Si80   Si    0.19720   0.81060   0.04370   0.00000  Uiso   1.00
O81    O     0.28110   0.00000   0.00000   0.00000  Uiso   1.00
O82    O     0.78110   0.50000   0.00000   0.00000  Uiso   1.00
O83    O     0.71890   0.00000   0.50000   0.00000  Uiso   1.00
O84    O     0.21890   0.50000   0.50000   0.00000  Uiso   1.00
O85    O     0.71890   0.00000   0.00000   0.00000  Uiso   1.00
O86    O     0.21890   0.50000   0.00000   0.00000  Uiso   1.00
O87    O     0.28110   0.00000   0.50000   0.00000  Uiso   1.00
O88    O     0.78110   0.50000   0.50000   0.00000  Uiso   1.00
O89    O     0.32680   0.07950   0.25000   0.00000  Uiso   1.00
O90    O     0.32530   0.30890   0.25000   0.00000  Uiso   1.00
O91    O     0.09060   0.30090   0.25000   0.00000  Uiso   1.00
Si92   Si    0.08480   0.37910   0.25000   0.00000  Uiso   1.00
Si93   Si    0.08480   0.22270   0.25000   0.00000  Uiso   1.00
O94    O     0.82680   0.57950   0.25000   0.00000  Uiso   1.00
O95    O     0.82530   0.80890   0.25000   0.00000  Uiso   1.00
O96    O     0.59060   0.80090   0.25000   0.00000  Uiso   1.00
Si97   Si    0.58480   0.87910   0.25000   0.00000  Uiso   1.00
Si98   Si    0.58480   0.72270   0.25000   0.00000  Uiso   1.00
O99    O     0.67320   0.92050   0.75000   0.00000  Uiso   1.00
O100   O     0.67470   0.69110   0.75000   0.00000  Uiso   1.00
O101   O     0.90940   0.69910   0.75000   0.00000  Uiso   1.00
Si102  Si    0.91520   0.62090   0.75000   0.00000  Uiso   1.00
Si103  Si    0.91520   0.77730   0.75000   0.00000  Uiso   1.00
O104   O     0.17320   0.42050   0.75000   0.00000  Uiso   1.00
O105   O     0.17470   0.19110   0.75000   0.00000  Uiso   1.00
O106   O     0.40940   0.19910   0.75000   0.00000  Uiso   1.00
Si107  Si    0.41520   0.12090   0.75000   0.00000  Uiso   1.00
Si108  Si    0.41520   0.27730   0.75000   0.00000  Uiso   1.00
O109   O     0.67320   0.07950   0.25000   0.00000  Uiso   1.00
O110   O     0.67470   0.30890   0.25000   0.00000  Uiso   1.00
O111   O     0.90940   0.30090   0.25000   0.00000  Uiso   1.00
Si112  Si    0.91520   0.37910   0.25000   0.00000  Uiso   1.00
Si113  Si    0.91520   0.22270   0.25000   0.00000  Uiso   1.00
O114   O     0.17320   0.57950   0.25000   0.00000  Uiso   1.00
O115   O     0.17470   0.80890   0.25000   0.00000  Uiso   1.00
O116   O     0.40940   0.80090   0.25000   0.00000  Uiso   1.00
Si117  Si    0.41520   0.87910   0.25000   0.00000  Uiso   1.00
Si118  Si    0.41520   0.72270   0.25000   0.00000  Uiso   1.00
O119   O     0.32680   0.92050   0.75000   0.00000  Uiso   1.00
O120   O     0.32530   0.69110   0.75000   0.00000  Uiso   1.00
O121   O     0.09060   0.69910   0.75000   0.00000  Uiso   1.00
Si122  Si    0.08480   0.62090   0.75000   0.00000  Uiso   1.00
Si123  Si    0.08480   0.77730   0.75000   0.00000  Uiso   1.00
O124   O     0.82680   0.42050   0.75000   0.00000  Uiso   1.00
O125   O     0.82530   0.19110   0.75000   0.00000  Uiso   1.00
O126   O     0.59060   0.19910   0.75000   0.00000  Uiso   1.00
Si127  Si    0.58480   0.12090   0.75000   0.00000  Uiso   1.00
Si128  Si    0.58480   0.27730   0.75000   0.00000  Uiso   1.00
O129   O     0.25000   0.25000   0.00000   0.00000  Uiso   1.00
O130   O     0.75000   0.75000   0.50000   0.00000  Uiso   1.00
O131   O     0.25000   0.25000   0.50000   0.00000  Uiso   1.00
O132   O     0.75000   0.25000   0.50000   0.00000  Uiso   1.00
O133   O     0.25000   0.75000   0.00000   0.00000  Uiso   1.00
O134   O     0.75000   0.75000   0.00000   0.00000  Uiso   1.00
O135   O     0.25000   0.75000   0.50000   0.00000  Uiso   1.00
O136   O     0.75000   0.25000   0.00000   0.00000  Uiso   1.00
O137   O     0.00000   0.40050   0.25000   0.00000  Uiso   1.00
O138   O     0.00000   0.20130   0.25000   0.00000  Uiso   1.00
O139   O     0.50000   0.90050   0.25000   0.00000  Uiso   1.00
O140   O     0.50000   0.70130   0.25000   0.00000  Uiso   1.00
O141   O     0.00000   0.59950   0.75000   0.00000  Uiso   1.00
O142   O     0.00000   0.79870   0.75000   0.00000  Uiso   1.00
O143   O     0.50000   0.09950   0.75000   0.00000  Uiso   1.00
O144   O     0.50000   0.29870   0.75000   0.00000  Uiso   1.00
loop_
_geom_bond_atom_site_label_1
_geom_bond_atom_site_label_2
_geom_bond_distance
_geom_bond_site_symmetry_2
_ccdc_geom_bond_type
O1     Si4     1.600   1_556 S
O1     Si107   1.605   .     S
O2     Si4     1.602   1_556 S
O2     Si50    1.606   .     S
O3     Si5     1.601   1_556 S
O3     Si108   1.604   .     S
Si4    O1      1.600   1_554 S
Si4    O2      1.602   1_554 S
Si4    O81     1.609   .     S
Si4    O89     1.605   .     S
Si5    O3      1.601   1_554 S
Si5    O90     1.606   .     S
Si5    O129    1.603   .     S
Si5    O47     1.606   .     S
O6     Si9     1.600   1_556 S
O6     Si102   1.605   .     S
O7     Si9     1.602   1_556 S
O7     Si45    1.606   .     S
O8     Si10    1.601   1_556 S
O8     Si103   1.604   .     S
Si9    O6      1.600   1_554 S
Si9    O7      1.602   1_554 S
Si9    O82     1.609   .     S
Si9    O94     1.605   .     S
Si10   O8      1.601   1_554 S
Si10   O95     1.606   .     S
Si10   O134    1.603   .     S
Si10   O42     1.606   .     S
O11    Si14    1.600   .     S
O11    Si97    1.605   .     S
O12    Si14    1.602   .     S
O12    Si60    1.606   .     S
O13    Si15    1.601   .     S
O13    Si98    1.604   .     S
Si14   O83     1.609   1_565 S
Si14   O99     1.605   .     S
Si15   O100    1.606   .     S
Si15   O130    1.603   .     S
Si15   O57     1.606   .     S
O16    Si19    1.600   .     S
O16    Si92    1.605   .     S
O17    Si19    1.602   .     S
O17    Si55    1.606   .     S
O18    Si20    1.601   .     S
O18    Si93    1.604   .     S
Si19   O84     1.609   .     S
Si19   O104    1.605   .     S
Si20   O105    1.606   .     S
Si20   O131    1.603   .     S
Si20   O52     1.606   .     S
O21    Si24    1.600   .     S
O21    Si127   1.605   .     S
O22    Si24    1.602   .     S
O22    Si70    1.606   .     S
O23    Si25    1.601   .     S
O23    Si128   1.604   .     S
Si24   O83     1.609   .     S
Si24   O109    1.605   .     S
Si25   O110    1.606   .     S
Si25   O132    1.603   .     S
Si25   O67     1.606   .     S
O26    Si29    1.600   .     S
O26    Si122   1.605   .     S
O27    Si29    1.602   .     S
O27    Si65    1.606   .     S
O28    Si30    1.601   .     S
O28    Si123   1.604   .     S
Si29   O84     1.609   .     S
Si29   O114    1.605   .     S
Si30   O115    1.606   .     S
Si30   O135    1.603   .     S
Si30   O62     1.606   .     S
O31    Si34    1.600   1_554 S
O31    Si117   1.605   .     S
O32    Si34    1.602   1_554 S
O32    Si80    1.606   .     S
O33    Si35    1.601   1_554 S
O33    Si118   1.604   .     S
Si34   O31     1.600   1_556 S
Si34   O32     1.602   1_556 S
Si34   O81     1.609   1_566 S
Si34   O119    1.605   .     S
Si35   O33     1.601   1_556 S
Si35   O120    1.606   .     S
Si35   O133    1.603   1_556 S
Si35   O77     1.606   .     S
O36    Si39    1.600   1_554 S
O36    Si112   1.605   .     S
O37    Si39    1.602   1_554 S
O37    Si75    1.606   .     S
O38    Si40    1.601   1_554 S
O38    Si113   1.604   .     S
Si39   O36     1.600   1_556 S
Si39   O37     1.602   1_556 S
Si39   O82     1.609   1_556 S
Si39   O124    1.605   .     S
Si40   O38     1.601   1_556 S
Si40   O125    1.606   .     S
Si40   O136    1.603   1_556 S
Si40   O72     1.606   .     S
O41    Si44    1.600   1_554 S
O41    Si97    1.605   .     S
O42    Si44    1.602   1_554 S
O43    Si45    1.601   1_554 S
O43    Si98    1.604   .     S
Si44   O41     1.600   1_556 S
Si44   O42     1.602   1_556 S
Si44   O85     1.609   1_566 S
Si44   O99     1.605   .     S
Si45   O43     1.601   1_556 S
Si45   O100    1.606   .     S
Si45   O134    1.603   1_556 S
O46    Si49    1.600   1_554 S
O46    Si92    1.605   .     S
O47    Si49    1.602   1_554 S
O48    Si50    1.601   1_554 S
O48    Si93    1.604   .     S
Si49   O46     1.600   1_556 S
Si49   O47     1.602   1_556 S
Si49   O86     1.609   1_556 S
Si49   O104    1.605   .     S
Si50   O48     1.601   1_556 S
Si50   O105    1.606   .     S
Si50   O129    1.603   1_556 S
O51    Si54    1.600   .     S
O51    Si107   1.605   .     S
O52    Si54    1.602   .     S
O53    Si55    1.601   .     S
O53    Si108   1.604   .     S
Si54   O87     1.609   .     S
Si54   O89     1.605   .     S
Si55   O90     1.606   .     S
Si55   O131    1.603   .     S
O56    Si59    1.600   .     S
O56    Si102   1.605   .     S
O57    Si59    1.602   .     S
O58    Si60    1.601   .     S
O58    Si103   1.604   .     S
Si59   O88     1.609   .     S
Si59   O94     1.605   .     S
Si60   O95     1.606   .     S
Si60   O130    1.603   .     S
O61    Si64    1.600   .     S
O61    Si117   1.605   .     S
O62    Si64    1.602   .     S
O63    Si65    1.601   .     S
O63    Si118   1.604   .     S
Si64   O87     1.609   1_565 S
Si64   O119    1.605   .     S
Si65   O120    1.606   .     S
Si65   O135    1.603   .     S
O66    Si69    1.600   .     S
O66    Si112   1.605   .     S
O67    Si69    1.602   .     S
O68    Si70    1.601   .     S
O68    Si113   1.604   .     S
Si69   O88     1.609   .     S
Si69   O124    1.605   .     S
Si70   O125    1.606   .     S
Si70   O132    1.603   .     S
O71    Si74    1.600   1_556 S
O71    Si127   1.605   .     S
O72    Si74    1.602   1_556 S
O73    Si75    1.601   1_556 S
O73    Si128   1.604   .     S
Si74   O71     1.600   1_554 S
Si74   O72     1.602   1_554 S
Si74   O85     1.609   .     S
Si74   O109    1.605   .     S
Si75   O73     1.601   1_554 S
Si75   O110    1.606   .     S
Si75   O136    1.603   .     S
O76    Si79    1.600   1_556 S
O76    Si122   1.605   .     S
O77    Si79    1.602   1_556 S
O78    Si80    1.601   1_556 S
O78    Si123   1.604   .     S
Si79   O76     1.600   1_554 S
Si79   O77     1.602   1_554 S
Si79   O86     1.609   .     S
Si79   O114    1.605   .     S
Si80   O78     1.601   1_554 S
Si80   O115    1.606   .     S
Si80   O133    1.603   .     S
O81    Si34    1.609   1_544 S
O82    Si39    1.609   1_554 S
O83    Si14    1.609   1_545 S
O85    Si44    1.609   1_544 S
O86    Si49    1.609   1_554 S
O87    Si64    1.609   1_545 S
O91    Si92    1.609   .     S
O91    Si93    1.609   .     S
Si92   O137    1.597   .     S
Si93   O138    1.597   .     S
O96    Si97    1.609   .     S
O96    Si98    1.609   .     S
Si97   O139    1.597   .     S
Si98   O140    1.597   .     S
O101   Si102   1.609   .     S
O101   Si103   1.609   .     S
Si102  O141    1.597   1_655 S
Si103  O142    1.597   1_655 S
O106   Si107   1.609   .     S
O106   Si108   1.609   .     S
Si107  O143    1.597   .     S
Si108  O144    1.597   .     S
O111   Si112   1.609   .     S
O111   Si113   1.609   .     S
Si112  O137    1.597   1_655 S
Si113  O138    1.597   1_655 S
O116   Si117   1.609   .     S
O116   Si118   1.609   .     S
Si117  O139    1.597   .     S
Si118  O140    1.597   .     S
O121   Si122   1.609   .     S
O121   Si123   1.609   .     S
Si122  O141    1.597   .     S
Si123  O142    1.597   .     S
O126   Si127   1.609   .     S
O126   Si128   1.609   .     S
Si127  O143    1.597   .     S
Si128  O144    1.597   .     S
O129   Si50    1.603   1_554 S
O133   Si35    1.603   1_554 S
O134   Si45    1.603   1_554 S
O136   Si40    1.603   1_554 S
O137   Si112   1.597   1_455 S
O138   Si113   1.597   1_455 S
O141   Si102   1.597   1_455 S
O142   Si103   1.597   1_455 S
