# generated using pymatgen
data_MgHC4O3
_symmetry_space_group_name_H-M   'P 1'
_cell_length_a   26.16317153
_cell_length_b   26.04715101
_cell_length_c   5.53250970
_cell_angle_alpha   90.00000000
_cell_angle_beta   90.00000000
_cell_angle_gamma   120.00000000
_symmetry_Int_Tables_number   1
_chemical_formula_structural   MgHC4O3
_chemical_formula_sum   'Mg18 H18 C72 O54'
_cell_volume   3265.15221879
_cell_formula_units_Z   18
loop_
 _symmetry_equiv_pos_site_id
 _symmetry_equiv_pos_as_xyz
  1  'x, y, z'
loop_
 _atom_site_type_symbol
 _atom_site_label
 _atom_site_symmetry_multiplicity
 _atom_site_fract_x
 _atom_site_fract_y
 _atom_site_fract_z
 _atom_site_occupancy
  Mg  Mg0  1  0.641590  0.685140  0.471890  1
  Mg  Mg1  1  0.314860  0.956450  0.471890  1
  Mg  Mg2  1  0.043550  0.358410  0.471890  1
  Mg  Mg3  1  0.358410  0.314860  0.528110  1
  Mg  Mg4  1  0.685140  0.043550  0.528110  1
  Mg  Mg5  1  0.956450  0.641590  0.528110  1
  Mg  Mg6  1  0.308257  0.018473  0.805223  1
  Mg  Mg7  1  0.981527  0.289783  0.805223  1
  Mg  Mg8  1  0.710217  0.691743  0.805223  1
  Mg  Mg9  1  0.025077  0.648193  0.861443  1
  Mg  Mg10  1  0.351807  0.376883  0.861443  1
  Mg  Mg11  1  0.623117  0.974923  0.861443  1
  Mg  Mg12  1  0.974923  0.351807  0.138557  1
  Mg  Mg13  1  0.648193  0.623117  0.138557  1
  Mg  Mg14  1  0.376883  0.025077  0.138557  1
  Mg  Mg15  1  0.691743  0.981527  0.194777  1
  Mg  Mg16  1  0.018473  0.710217  0.194777  1
  Mg  Mg17  1  0.289783  0.308257  0.194777  1
  H  H18  1  0.165290  0.858030  0.479180  1
  H  H19  1  0.141970  0.307260  0.479180  1
  H  H20  1  0.692740  0.834710  0.479180  1
  H  H21  1  0.834710  0.141970  0.520820  1
  H  H22  1  0.858030  0.692740  0.520820  1
  H  H23  1  0.307260  0.165290  0.520820  1
  H  H24  1  0.831957  0.191363  0.812513  1
  H  H25  1  0.808637  0.640593  0.812513  1
  H  H26  1  0.359407  0.168043  0.812513  1
  H  H27  1  0.501377  0.475303  0.854153  1
  H  H28  1  0.524697  0.026073  0.854153  1
  H  H29  1  0.973927  0.498623  0.854153  1
  H  H30  1  0.498623  0.524697  0.145847  1
  H  H31  1  0.475303  0.973927  0.145847  1
  H  H32  1  0.026073  0.501377  0.145847  1
  H  H33  1  0.168043  0.808637  0.187487  1
  H  H34  1  0.191363  0.359407  0.187487  1
  H  H35  1  0.640593  0.831957  0.187487  1
  C  C36  1  0.926670  0.245800  0.427030  1
  C  C37  1  0.754200  0.680870  0.427030  1
  C  C38  1  0.319130  0.073330  0.427030  1
  C  C39  1  0.073330  0.754200  0.572970  1
  C  C40  1  0.245800  0.319130  0.572970  1
  C  C41  1  0.680870  0.926670  0.572970  1
  C  C42  1  0.593337  0.579133  0.760363  1
  C  C43  1  0.420867  0.014203  0.760363  1
  C  C44  1  0.985797  0.406663  0.760363  1
  C  C45  1  0.739997  0.087533  0.906303  1
  C  C46  1  0.912467  0.652463  0.906303  1
  C  C47  1  0.347537  0.260003  0.906303  1
  C  C48  1  0.260003  0.912467  0.093697  1
  C  C49  1  0.087533  0.347537  0.093697  1
  C  C50  1  0.652463  0.739997  0.093697  1
  C  C51  1  0.406663  0.420867  0.239637  1
  C  C52  1  0.579133  0.985797  0.239637  1
  C  C53  1  0.014203  0.593337  0.239637  1
  C  C54  1  0.879180  0.207110  0.290830  1
  C  C55  1  0.792890  0.672070  0.290830  1
  C  C56  1  0.327930  0.120820  0.290830  1
  C  C57  1  0.120820  0.792890  0.709170  1
  C  C58  1  0.207110  0.327930  0.709170  1
  C  C59  1  0.672070  0.879180  0.709170  1
  C  C60  1  0.545847  0.540443  0.624163  1
  C  C61  1  0.459557  0.005403  0.624163  1
  C  C62  1  0.994597  0.454153  0.624163  1
  C  C63  1  0.787487  0.126223  0.042503  1
  C  C64  1  0.873777  0.661263  0.042503  1
  C  C65  1  0.338737  0.212513  0.042503  1
  C  C66  1  0.212513  0.873777  0.957497  1
  C  C67  1  0.126223  0.338737  0.957497  1
  C  C68  1  0.661263  0.787487  0.957497  1
  C  C69  1  0.454153  0.459557  0.375837  1
  C  C70  1  0.540443  0.994597  0.375837  1
  C  C71  1  0.005403  0.545847  0.375837  1
  C  C72  1  0.212540  0.889260  0.754900  1
  C  C73  1  0.110740  0.323280  0.754900  1
  C  C74  1  0.676720  0.787460  0.754900  1
  C  C75  1  0.787460  0.110740  0.245100  1
  C  C76  1  0.889260  0.676720  0.245100  1
  C  C77  1  0.323280  0.212540  0.245100  1
  C  C78  1  0.879207  0.222593  0.088233  1
  C  C79  1  0.777407  0.656613  0.088233  1
  C  C80  1  0.343387  0.120793  0.088233  1
  C  C81  1  0.454127  0.444073  0.578433  1
  C  C82  1  0.555927  0.010053  0.578433  1
  C  C83  1  0.989947  0.545873  0.578433  1
  C  C84  1  0.545873  0.555927  0.421567  1
  C  C85  1  0.444073  0.989947  0.421567  1
  C  C86  1  0.010053  0.454127  0.421567  1
  C  C87  1  0.120793  0.777407  0.911767  1
  C  C88  1  0.222593  0.343387  0.911767  1
  C  C89  1  0.656613  0.879207  0.911767  1
  C  C90  1  0.166300  0.847590  0.635580  1
  C  C91  1  0.152410  0.318710  0.635580  1
  C  C92  1  0.681290  0.833700  0.635580  1
  C  C93  1  0.833700  0.152410  0.364420  1
  C  C94  1  0.847590  0.681290  0.364420  1
  C  C95  1  0.318710  0.166300  0.364420  1
  C  C96  1  0.832967  0.180923  0.968913  1
  C  C97  1  0.819077  0.652043  0.968913  1
  C  C98  1  0.347957  0.167033  0.968913  1
  C  C99  1  0.500367  0.485743  0.697753  1
  C  C100  1  0.514257  0.014623  0.697753  1
  C  C101  1  0.985377  0.499633  0.697753  1
  C  C102  1  0.499633  0.514257  0.302247  1
  C  C103  1  0.485743  0.985377  0.302247  1
  C  C104  1  0.014623  0.500367  0.302247  1
  C  C105  1  0.167033  0.819077  0.031087  1
  C  C106  1  0.180923  0.347957  0.031087  1
  C  C107  1  0.652043  0.832967  0.031087  1
  O  O108  1  0.969430  0.297760  0.360380  1
  O  O109  1  0.702240  0.671670  0.360380  1
  O  O110  1  0.328330  0.030570  0.360380  1
  O  O111  1  0.030570  0.702240  0.639620  1
  O  O112  1  0.297760  0.328330  0.639620  1
  O  O113  1  0.671670  0.969430  0.639620  1
  O  O114  1  0.636097  0.631093  0.693713  1
  O  O115  1  0.368907  0.005003  0.693713  1
  O  O116  1  0.994997  0.363903  0.693713  1
  O  O117  1  0.697237  0.035573  0.972953  1
  O  O118  1  0.964427  0.661663  0.972953  1
  O  O119  1  0.338337  0.302763  0.972953  1
  O  O120  1  0.302763  0.964427  0.027047  1
  O  O121  1  0.035573  0.338337  0.027047  1
  O  O122  1  0.661663  0.697237  0.027047  1
  O  O123  1  0.363903  0.368907  0.306287  1
  O  O124  1  0.631093  0.994997  0.306287  1
  O  O125  1  0.005003  0.636097  0.306287  1
  O  O126  1  0.927630  0.230480  0.610200  1
  O  O127  1  0.769520  0.697150  0.610200  1
  O  O128  1  0.302850  0.072370  0.610200  1
  O  O129  1  0.072370  0.769520  0.389800  1
  O  O130  1  0.230480  0.302850  0.389800  1
  O  O131  1  0.697150  0.927630  0.389800  1
  O  O132  1  0.594297  0.563813  0.943533  1
  O  O133  1  0.436187  0.030483  0.943533  1
  O  O134  1  0.969517  0.405703  0.943533  1
  O  O135  1  0.739037  0.102853  0.723133  1
  O  O136  1  0.897147  0.636183  0.723133  1
  O  O137  1  0.363817  0.260963  0.723133  1
  O  O138  1  0.260963  0.897147  0.276867  1
  O  O139  1  0.102853  0.363817  0.276867  1
  O  O140  1  0.636183  0.739037  0.276867  1
  O  O141  1  0.405703  0.436187  0.056467  1
  O  O142  1  0.563813  0.969517  0.056467  1
  O  O143  1  0.030483  0.594297  0.056467  1
  O  O144  1  0.254940  0.942050  0.673830  1
  O  O145  1  0.057950  0.312890  0.673830  1
  O  O146  1  0.687110  0.745060  0.673830  1
  O  O147  1  0.745060  0.057950  0.326170  1
  O  O148  1  0.942050  0.687110  0.326170  1
  O  O149  1  0.312890  0.254940  0.326170  1
  O  O150  1  0.921607  0.275383  0.007163  1
  O  O151  1  0.724617  0.646223  0.007163  1
  O  O152  1  0.353777  0.078393  0.007163  1
  O  O153  1  0.411727  0.391283  0.659503  1
  O  O154  1  0.608717  0.020443  0.659503  1
  O  O155  1  0.979557  0.588273  0.659503  1
  O  O156  1  0.588273  0.608717  0.340497  1
  O  O157  1  0.391283  0.979557  0.340497  1
  O  O158  1  0.020443  0.411727  0.340497  1
  O  O159  1  0.078393  0.724617  0.992837  1
  O  O160  1  0.275383  0.353777  0.992837  1
  O  O161  1  0.646223  0.921607  0.992837  1
