# generated using pymatgen
data_H4Pb(C2O)4
_symmetry_space_group_name_H-M   'P 1'
_cell_length_a   8.32017941
_cell_length_b   18.02683188
_cell_length_c   10.08505942
_cell_angle_alpha   90.00000000
_cell_angle_beta   102.68700000
_cell_angle_gamma   90.00000000
_symmetry_Int_Tables_number   1
_chemical_formula_structural   H4Pb(C2O)4
_chemical_formula_sum   'H16 Pb4 C32 O16'
_cell_volume   1475.69093134
_cell_formula_units_Z   4
loop_
 _symmetry_equiv_pos_site_id
 _symmetry_equiv_pos_as_xyz
  1  'x, y, z'
loop_
 _atom_site_type_symbol
 _atom_site_label
 _atom_site_symmetry_multiplicity
 _atom_site_fract_x
 _atom_site_fract_y
 _atom_site_fract_z
 _atom_site_occupancy
  H  H0  1  0.243000  0.713000  0.225000  1
  H  H1  1  0.257000  0.213000  0.275000  1
  H  H2  1  0.757000  0.287000  0.775000  1
  H  H3  1  0.743000  0.787000  0.725000  1
  H  H4  1  0.326000  0.828000  0.303000  1
  H  H5  1  0.174000  0.328000  0.197000  1
  H  H6  1  0.674000  0.172000  0.697000  1
  H  H7  1  0.826000  0.672000  0.803000  1
  H  H8  1  0.658000  0.683000  0.147000  1
  H  H9  1  0.842000  0.183000  0.353000  1
  H  H10  1  0.342000  0.317000  0.853000  1
  H  H11  1  0.158000  0.817000  0.647000  1
  H  H12  1  0.734000  0.797000  0.237000  1
  H  H13  1  0.766000  0.297000  0.263000  1
  H  H14  1  0.266000  0.203000  0.763000  1
  H  H15  1  0.234000  0.703000  0.737000  1
  Pb  Pb16  1  0.747580  0.028900  0.495530  1
  Pb  Pb17  1  0.752420  0.528900  0.004470  1
  Pb  Pb18  1  0.252420  0.971100  0.504470  1
  Pb  Pb19  1  0.247580  0.471100  0.995530  1
  C  C20  1  0.538100  0.826300  0.278000  1
  C  C21  1  0.961900  0.326300  0.222000  1
  C  C22  1  0.461900  0.173700  0.722000  1
  C  C23  1  0.038100  0.673700  0.778000  1
  C  C24  1  0.381600  0.800700  0.277800  1
  C  C25  1  0.118400  0.300700  0.222200  1
  C  C26  1  0.618400  0.199300  0.722200  1
  C  C27  1  0.881600  0.699300  0.777800  1
  C  C28  1  0.334600  0.730300  0.230300  1
  C  C29  1  0.165400  0.230300  0.269700  1
  C  C30  1  0.665400  0.269700  0.769700  1
  C  C31  1  0.834600  0.769700  0.730300  1
  C  C32  1  0.441600  0.684200  0.183200  1
  C  C33  1  0.058400  0.184200  0.316800  1
  C  C34  1  0.558400  0.315800  0.816800  1
  C  C35  1  0.941600  0.815800  0.683200  1
  C  C36  1  0.597100  0.709600  0.181700  1
  C  C37  1  0.902900  0.209600  0.318300  1
  C  C38  1  0.402900  0.290400  0.818300  1
  C  C39  1  0.097100  0.790400  0.681700  1
  C  C40  1  0.644800  0.780200  0.230300  1
  C  C41  1  0.855200  0.280200  0.269700  1
  C  C42  1  0.355200  0.219800  0.769700  1
  C  C43  1  0.144800  0.719800  0.730300  1
  C  C44  1  0.590100  0.902200  0.331600  1
  C  C45  1  0.909900  0.402200  0.168400  1
  C  C46  1  0.409900  0.097800  0.668400  1
  C  C47  1  0.090100  0.597800  0.831600  1
  C  C48  1  0.391800  0.606300  0.136600  1
  C  C49  1  0.108200  0.106300  0.363400  1
  C  C50  1  0.608200  0.393700  0.863400  1
  C  C51  1  0.891800  0.893700  0.636600  1
  O  O52  1  0.733000  0.924500  0.329100  1
  O  O53  1  0.767000  0.424500  0.170900  1
  O  O54  1  0.267000  0.075500  0.670900  1
  O  O55  1  0.233000  0.575500  0.829100  1
  O  O56  1  0.493000  0.942720  0.379500  1
  O  O57  1  0.007000  0.442720  0.120500  1
  O  O58  1  0.507000  0.057280  0.620500  1
  O  O59  1  0.993000  0.557280  0.879500  1
  O  O60  1  0.249000  0.583910  0.139700  1
  O  O61  1  0.251000  0.083910  0.360300  1
  O  O62  1  0.751000  0.416090  0.860300  1
  O  O63  1  0.749000  0.916090  0.639700  1
  O  O64  1  0.491200  0.564680  0.093800  1
  O  O65  1  0.008800  0.064680  0.406200  1
  O  O66  1  0.508800  0.435320  0.906200  1
  O  O67  1  0.991200  0.935320  0.593800  1
