# generated using pymatgen
data_SiO2
_symmetry_space_group_name_H-M   'P 1'
_cell_length_a   18.12204790
_cell_length_b   20.54486543
_cell_length_c   7.53422950
_cell_angle_alpha   90.00000000
_cell_angle_beta   90.00000000
_cell_angle_gamma   90.00000000
_symmetry_Int_Tables_number   1
_chemical_formula_structural   SiO2
_chemical_formula_sum   'Si48 O96'
_cell_volume   2805.10692422
_cell_formula_units_Z   48
loop_
 _symmetry_equiv_pos_site_id
 _symmetry_equiv_pos_as_xyz
  1  'x, y, z'
loop_
 _atom_site_type_symbol
 _atom_site_label
 _atom_site_symmetry_multiplicity
 _atom_site_fract_x
 _atom_site_fract_y
 _atom_site_fract_z
 _atom_site_occupancy
  Si  Si0  1  0.305700  0.073600  0.043500  1.0
  Si  Si1  1  0.302800  0.310600  0.043700  1.0
  Si  Si2  1  0.805700  0.573600  0.043500  1.0
  Si  Si3  1  0.802800  0.810600  0.043700  1.0
  Si  Si4  1  0.694300  0.926400  0.543500  1.0
  Si  Si5  1  0.697200  0.689400  0.543700  1.0
  Si  Si6  1  0.194300  0.426400  0.543500  1.0
  Si  Si7  1  0.197200  0.189400  0.543700  1.0
  Si  Si8  1  0.694300  0.073600  0.456500  1.0
  Si  Si9  1  0.697200  0.310600  0.456300  1.0
  Si  Si10  1  0.194300  0.573600  0.456500  1.0
  Si  Si11  1  0.197200  0.810600  0.456300  1.0
  Si  Si12  1  0.305700  0.926400  0.956500  1.0
  Si  Si13  1  0.302800  0.689400  0.956300  1.0
  Si  Si14  1  0.805700  0.426400  0.956500  1.0
  Si  Si15  1  0.802800  0.189400  0.956300  1.0
  Si  Si16  1  0.694300  0.926400  0.956500  1.0
  Si  Si17  1  0.697200  0.689400  0.956300  1.0
  Si  Si18  1  0.194300  0.426400  0.956500  1.0
  Si  Si19  1  0.197200  0.189400  0.956300  1.0
  Si  Si20  1  0.305700  0.073600  0.456500  1.0
  Si  Si21  1  0.302800  0.310600  0.456300  1.0
  Si  Si22  1  0.805700  0.573600  0.456500  1.0
  Si  Si23  1  0.802800  0.810600  0.456300  1.0
  Si  Si24  1  0.305700  0.926400  0.543500  1.0
  Si  Si25  1  0.302800  0.689400  0.543700  1.0
  Si  Si26  1  0.805700  0.426400  0.543500  1.0
  Si  Si27  1  0.802800  0.189400  0.543700  1.0
  Si  Si28  1  0.694300  0.073600  0.043500  1.0
  Si  Si29  1  0.697200  0.310600  0.043700  1.0
  Si  Si30  1  0.194300  0.573600  0.043500  1.0
  Si  Si31  1  0.197200  0.810600  0.043700  1.0
  Si  Si32  1  0.084800  0.379100  0.250000  1.0
  Si  Si33  1  0.084800  0.222700  0.250000  1.0
  Si  Si34  1  0.584800  0.879100  0.250000  1.0
  Si  Si35  1  0.584800  0.722700  0.250000  1.0
  Si  Si36  1  0.915200  0.620900  0.750000  1.0
  Si  Si37  1  0.915200  0.777300  0.750000  1.0
  Si  Si38  1  0.415200  0.120900  0.750000  1.0
  Si  Si39  1  0.415200  0.277300  0.750000  1.0
  Si  Si40  1  0.915200  0.379100  0.250000  1.0
  Si  Si41  1  0.915200  0.222700  0.250000  1.0
  Si  Si42  1  0.415200  0.879100  0.250000  1.0
  Si  Si43  1  0.415200  0.722700  0.250000  1.0
  Si  Si44  1  0.084800  0.620900  0.750000  1.0
  Si  Si45  1  0.084800  0.777300  0.750000  1.0
  Si  Si46  1  0.584800  0.120900  0.750000  1.0
  Si  Si47  1  0.584800  0.277300  0.750000  1.0
  O  O48  1  0.375700  0.092400  0.924300  1.0
  O  O49  1  0.239100  0.122300  0.999200  1.0
  O  O50  1  0.375700  0.305800  0.924200  1.0
  O  O51  1  0.875700  0.592400  0.924300  1.0
  O  O52  1  0.739100  0.622300  0.999200  1.0
  O  O53  1  0.875700  0.805800  0.924200  1.0
  O  O54  1  0.624300  0.907600  0.424300  1.0
  O  O55  1  0.760900  0.877700  0.499200  1.0
  O  O56  1  0.624300  0.694200  0.424200  1.0
  O  O57  1  0.124300  0.407600  0.424300  1.0
  O  O58  1  0.260900  0.377700  0.499200  1.0
  O  O59  1  0.124300  0.194200  0.424200  1.0
  O  O60  1  0.624300  0.092400  0.575700  1.0
  O  O61  1  0.760900  0.122300  0.500800  1.0
  O  O62  1  0.624300  0.305800  0.575800  1.0
  O  O63  1  0.124300  0.592400  0.575700  1.0
  O  O64  1  0.260900  0.622300  0.500800  1.0
  O  O65  1  0.124300  0.805800  0.575800  1.0
  O  O66  1  0.375700  0.907600  0.075700  1.0
  O  O67  1  0.239100  0.877700  0.000800  1.0
  O  O68  1  0.375700  0.694200  0.075800  1.0
  O  O69  1  0.875700  0.407600  0.075700  1.0
  O  O70  1  0.739100  0.377700  0.000800  1.0
  O  O71  1  0.875700  0.194200  0.075800  1.0
  O  O72  1  0.624300  0.907600  0.075700  1.0
  O  O73  1  0.760900  0.877700  0.000800  1.0
  O  O74  1  0.624300  0.694200  0.075800  1.0
  O  O75  1  0.124300  0.407600  0.075700  1.0
  O  O76  1  0.260900  0.377700  0.000800  1.0
  O  O77  1  0.124300  0.194200  0.075800  1.0
  O  O78  1  0.375700  0.092400  0.575700  1.0
  O  O79  1  0.239100  0.122300  0.500800  1.0
  O  O80  1  0.375700  0.305800  0.575800  1.0
  O  O81  1  0.875700  0.592400  0.575700  1.0
  O  O82  1  0.739100  0.622300  0.500800  1.0
  O  O83  1  0.875700  0.805800  0.575800  1.0
  O  O84  1  0.375700  0.907600  0.424300  1.0
  O  O85  1  0.239100  0.877700  0.499200  1.0
  O  O86  1  0.375700  0.694200  0.424200  1.0
  O  O87  1  0.875700  0.407600  0.424300  1.0
  O  O88  1  0.739100  0.377700  0.499200  1.0
  O  O89  1  0.875700  0.194200  0.424200  1.0
  O  O90  1  0.624300  0.092400  0.924300  1.0
  O  O91  1  0.760900  0.122300  0.999200  1.0
  O  O92  1  0.624300  0.305800  0.924200  1.0
  O  O93  1  0.124300  0.592400  0.924300  1.0
  O  O94  1  0.260900  0.622300  0.999200  1.0
  O  O95  1  0.124300  0.805800  0.924200  1.0
  O  O96  1  0.281100  0.000000  0.000000  1.0
  O  O97  1  0.781100  0.500000  0.000000  1.0
  O  O98  1  0.718900  0.000000  0.500000  1.0
  O  O99  1  0.218900  0.500000  0.500000  1.0
  O  O100  1  0.718900  0.000000  0.000000  1.0
  O  O101  1  0.218900  0.500000  0.000000  1.0
  O  O102  1  0.281100  0.000000  0.500000  1.0
  O  O103  1  0.781100  0.500000  0.500000  1.0
  O  O104  1  0.326800  0.079500  0.250000  1.0
  O  O105  1  0.325300  0.308900  0.250000  1.0
  O  O106  1  0.090600  0.300900  0.250000  1.0
  O  O107  1  0.826800  0.579500  0.250000  1.0
  O  O108  1  0.825300  0.808900  0.250000  1.0
  O  O109  1  0.590600  0.800900  0.250000  1.0
  O  O110  1  0.673200  0.920500  0.750000  1.0
  O  O111  1  0.674700  0.691100  0.750000  1.0
  O  O112  1  0.909400  0.699100  0.750000  1.0
  O  O113  1  0.173200  0.420500  0.750000  1.0
  O  O114  1  0.174700  0.191100  0.750000  1.0
  O  O115  1  0.409400  0.199100  0.750000  1.0
  O  O116  1  0.673200  0.079500  0.250000  1.0
  O  O117  1  0.674700  0.308900  0.250000  1.0
  O  O118  1  0.909400  0.300900  0.250000  1.0
  O  O119  1  0.173200  0.579500  0.250000  1.0
  O  O120  1  0.174700  0.808900  0.250000  1.0
  O  O121  1  0.409400  0.800900  0.250000  1.0
  O  O122  1  0.326800  0.920500  0.750000  1.0
  O  O123  1  0.325300  0.691100  0.750000  1.0
  O  O124  1  0.090600  0.699100  0.750000  1.0
  O  O125  1  0.826800  0.420500  0.750000  1.0
  O  O126  1  0.825300  0.191100  0.750000  1.0
  O  O127  1  0.590600  0.199100  0.750000  1.0
  O  O128  1  0.250000  0.250000  0.000000  1.0
  O  O129  1  0.750000  0.750000  0.500000  1.0
  O  O130  1  0.250000  0.250000  0.500000  1.0
  O  O131  1  0.750000  0.250000  0.500000  1.0
  O  O132  1  0.250000  0.750000  0.000000  1.0
  O  O133  1  0.750000  0.750000  0.000000  1.0
  O  O134  1  0.250000  0.750000  0.500000  1.0
  O  O135  1  0.750000  0.250000  0.000000  1.0
  O  O136  1  0.000000  0.400500  0.250000  1.0
  O  O137  1  0.000000  0.201300  0.250000  1.0
  O  O138  1  0.500000  0.900500  0.250000  1.0
  O  O139  1  0.500000  0.701300  0.250000  1.0
  O  O140  1  0.000000  0.599500  0.750000  1.0
  O  O141  1  0.000000  0.798700  0.750000  1.0
  O  O142  1  0.500000  0.099500  0.750000  1.0
  O  O143  1  0.500000  0.298700  0.750000  1.0
