# generated using pymatgen
data_SiO2
_symmetry_space_group_name_H-M   'P 1'
_cell_length_a   4.91629149
_cell_length_b   4.91628562
_cell_length_c   5.41656241
_cell_angle_alpha   90.00000000
_cell_angle_beta   90.00000000
_cell_angle_gamma   120.00000000
_symmetry_Int_Tables_number   1
_chemical_formula_structural   SiO2
_chemical_formula_sum   'Si3 O6'
_cell_volume   113.37808422
_cell_formula_units_Z   3
loop_
 _symmetry_equiv_pos_site_id
 _symmetry_equiv_pos_as_xyz
  1  'x, y, z'
loop_
 _atom_site_type_symbol
 _atom_site_label
 _atom_site_symmetry_multiplicity
 _atom_site_fract_x
 _atom_site_fract_y
 _atom_site_fract_z
 _atom_site_occupancy
  Si  Si0  1  0.470100  0.000000  0.333333  1
  Si  Si1  1  0.000000  0.470100  0.666667  1
  Si  Si2  1  0.529900  0.529900  0.000000  1
  O  O3  1  0.413600  0.267600  0.214100  1
  O  O4  1  0.732400  0.146000  0.547433  1
  O  O5  1  0.854000  0.586400  0.880767  1
  O  O6  1  0.267600  0.413600  0.785900  1
  O  O7  1  0.146000  0.732400  0.452567  1
  O  O8  1  0.586400  0.854000  0.119233  1
