# generated using pymatgen
data_ZnH10(C2N)4
_symmetry_space_group_name_H-M   'P 1'
_cell_length_a   20.24685852
_cell_length_b   14.83451262
_cell_length_c   14.84840663
_cell_angle_alpha   90.00000000
_cell_angle_beta   90.00000000
_cell_angle_gamma   90.00000000
_symmetry_Int_Tables_number   1
_chemical_formula_structural   ZnH10(C2N)4
_chemical_formula_sum   'Zn12 H120 C96 N48'
_cell_volume   4459.75276090
_cell_formula_units_Z   12
loop_
 _symmetry_equiv_pos_site_id
 _symmetry_equiv_pos_as_xyz
  1  'x, y, z'
loop_
 _atom_site_type_symbol
 _atom_site_label
 _atom_site_symmetry_multiplicity
 _atom_site_fract_x
 _atom_site_fract_y
 _atom_site_fract_z
 _atom_site_occupancy
  Zn  Zn0  1  0.500000  0.000000  0.750000  1
  Zn  Zn1  1  0.000000  0.500000  0.250000  1
  Zn  Zn2  1  0.500000  0.000000  0.250000  1
  Zn  Zn3  1  0.000000  0.500000  0.750000  1
  Zn  Zn4  1  0.750000  0.500000  0.000000  1
  Zn  Zn5  1  0.500000  0.250000  0.000000  1
  Zn  Zn6  1  0.250000  0.500000  0.000000  1
  Zn  Zn7  1  0.500000  0.750000  0.000000  1
  Zn  Zn8  1  0.000000  0.750000  0.500000  1
  Zn  Zn9  1  0.000000  0.250000  0.500000  1
  Zn  Zn10  1  0.250000  0.000000  0.500000  1
  Zn  Zn11  1  0.750000  0.000000  0.500000  1
  H  H12  1  0.377700  0.858900  0.723400  1
  H  H13  1  0.858900  0.622300  0.276600  1
  H  H14  1  0.622300  0.141100  0.723400  1
  H  H15  1  0.541300  0.920200  0.574300  1
  H  H16  1  0.594200  0.877200  0.636400  1
  H  H17  1  0.627600  0.896100  0.552500  1
  H  H18  1  0.141100  0.377700  0.276600  1
  H  H19  1  0.920200  0.458700  0.425700  1
  H  H20  1  0.877200  0.405800  0.363600  1
  H  H21  1  0.896100  0.372400  0.447500  1
  H  H22  1  0.377700  0.141100  0.276600  1
  H  H23  1  0.141100  0.622300  0.723400  1
  H  H24  1  0.622300  0.858900  0.276600  1
  H  H25  1  0.541300  0.079800  0.425700  1
  H  H26  1  0.594200  0.122800  0.363600  1
  H  H27  1  0.627600  0.103900  0.447500  1
  H  H28  1  0.858900  0.377700  0.723400  1
  H  H29  1  0.079800  0.458700  0.574300  1
  H  H30  1  0.122800  0.405800  0.636400  1
  H  H31  1  0.103900  0.372400  0.552500  1
  H  H32  1  0.723400  0.377700  0.858900  1
  H  H33  1  0.377700  0.276600  0.141100  1
  H  H34  1  0.458700  0.425700  0.920200  1
  H  H35  1  0.405800  0.363600  0.877200  1
  H  H36  1  0.372400  0.447500  0.896100  1
  H  H37  1  0.276600  0.622300  0.858900  1
  H  H38  1  0.622300  0.723400  0.141100  1
  H  H39  1  0.541300  0.574300  0.920200  1
  H  H40  1  0.594200  0.636400  0.877200  1
  H  H41  1  0.627600  0.552500  0.896100  1
  H  H42  1  0.723400  0.622300  0.141100  1
  H  H43  1  0.622300  0.276600  0.858900  1
  H  H44  1  0.541300  0.425700  0.079800  1
  H  H45  1  0.594200  0.363600  0.122800  1
  H  H46  1  0.627600  0.447500  0.103900  1
  H  H47  1  0.276600  0.377700  0.141100  1
  H  H48  1  0.377700  0.723400  0.858900  1
  H  H49  1  0.458700  0.574300  0.079800  1
  H  H50  1  0.405800  0.636400  0.122800  1
  H  H51  1  0.372400  0.552500  0.103900  1
  H  H52  1  0.858900  0.723400  0.377700  1
  H  H53  1  0.079800  0.574300  0.458700  1
  H  H54  1  0.122800  0.636400  0.405800  1
  H  H55  1  0.103900  0.552500  0.372400  1
  H  H56  1  0.858900  0.276600  0.622300  1
  H  H57  1  0.276600  0.141100  0.377700  1
  H  H58  1  0.425700  0.920200  0.458700  1
  H  H59  1  0.363600  0.877200  0.405800  1
  H  H60  1  0.447500  0.896100  0.372400  1
  H  H61  1  0.141100  0.723400  0.622300  1
  H  H62  1  0.920200  0.574300  0.541300  1
  H  H63  1  0.877200  0.636400  0.594200  1
  H  H64  1  0.896100  0.552500  0.627600  1
  H  H65  1  0.723400  0.858900  0.377700  1
  H  H66  1  0.141100  0.276600  0.377700  1
  H  H67  1  0.276600  0.858900  0.622300  1
  H  H68  1  0.425700  0.079800  0.541300  1
  H  H69  1  0.363600  0.122800  0.594200  1
  H  H70  1  0.447500  0.103900  0.627600  1
  H  H71  1  0.723400  0.141100  0.622300  1
  H  H72  1  0.877700  0.358900  0.223400  1
  H  H73  1  0.958700  0.579800  0.074300  1
  H  H74  1  0.905800  0.622800  0.136400  1
  H  H75  1  0.872400  0.603900  0.052500  1
  H  H76  1  0.358900  0.122300  0.776600  1
  H  H77  1  0.122300  0.641100  0.223400  1
  H  H78  1  0.041300  0.420200  0.074300  1
  H  H79  1  0.094200  0.377200  0.136400  1
  H  H80  1  0.127600  0.396100  0.052500  1
  H  H81  1  0.641100  0.877700  0.776600  1
  H  H82  1  0.420200  0.958700  0.925700  1
  H  H83  1  0.377200  0.905800  0.863600  1
  H  H84  1  0.396100  0.872400  0.947500  1
  H  H85  1  0.877700  0.641100  0.776600  1
  H  H86  1  0.958700  0.420200  0.925700  1
  H  H87  1  0.905800  0.377200  0.863600  1
  H  H88  1  0.872400  0.396100  0.947500  1
  H  H89  1  0.641100  0.122300  0.223400  1
  H  H90  1  0.122300  0.358900  0.776600  1
  H  H91  1  0.358900  0.877700  0.223400  1
  H  H92  1  0.223400  0.877700  0.358900  1
  H  H93  1  0.877700  0.776600  0.641100  1
  H  H94  1  0.958700  0.925700  0.420200  1
  H  H95  1  0.905800  0.863600  0.377200  1
  H  H96  1  0.872400  0.947500  0.396100  1
  H  H97  1  0.776600  0.122300  0.358900  1
  H  H98  1  0.122300  0.223400  0.641100  1
  H  H99  1  0.041300  0.074300  0.420200  1
  H  H100  1  0.094200  0.136400  0.377200  1
  H  H101  1  0.127600  0.052500  0.396100  1
  H  H102  1  0.223400  0.122300  0.641100  1
  H  H103  1  0.122300  0.776600  0.358900  1
  H  H104  1  0.041300  0.925700  0.579800  1
  H  H105  1  0.094200  0.863600  0.622800  1
  H  H106  1  0.127600  0.947500  0.603900  1
  H  H107  1  0.776600  0.877700  0.641100  1
  H  H108  1  0.877700  0.223400  0.358900  1
  H  H109  1  0.958700  0.074300  0.579800  1
  H  H110  1  0.905800  0.136400  0.622800  1
  H  H111  1  0.872400  0.052500  0.603900  1
  H  H112  1  0.358900  0.223400  0.877700  1
  H  H113  1  0.579800  0.074300  0.958700  1
  H  H114  1  0.622800  0.136400  0.905800  1
  H  H115  1  0.603900  0.052500  0.872400  1
  H  H116  1  0.358900  0.776600  0.122300  1
  H  H117  1  0.579800  0.925700  0.041300  1
  H  H118  1  0.622800  0.863600  0.094200  1
  H  H119  1  0.603900  0.947500  0.127600  1
  H  H120  1  0.776600  0.641100  0.877700  1
  H  H121  1  0.641100  0.223400  0.122300  1
  H  H122  1  0.420200  0.074300  0.041300  1
  H  H123  1  0.377200  0.136400  0.094200  1
  H  H124  1  0.396100  0.052500  0.127600  1
  H  H125  1  0.223400  0.358900  0.877700  1
  H  H126  1  0.074300  0.579800  0.958700  1
  H  H127  1  0.136400  0.622800  0.905800  1
  H  H128  1  0.052500  0.603900  0.872400  1
  H  H129  1  0.641100  0.776600  0.877700  1
  H  H130  1  0.776600  0.358900  0.122300  1
  H  H131  1  0.223400  0.641100  0.122300  1
  C  C132  1  0.377050  0.007900  0.622950  1
  C  C133  1  0.368510  0.899140  0.687500  1
  C  C134  1  0.406100  0.085500  0.593900  1
  C  C135  1  0.007900  0.622950  0.377050  1
  C  C136  1  0.899140  0.631490  0.312500  1
  C  C137  1  0.085500  0.593900  0.406100  1
  C  C138  1  0.622950  0.992100  0.622950  1
  C  C139  1  0.631490  0.100860  0.687500  1
  C  C140  1  0.593900  0.914500  0.593900  1
  C  C141  1  0.992100  0.377050  0.377050  1
  C  C142  1  0.100860  0.368510  0.312500  1
  C  C143  1  0.914500  0.406100  0.406100  1
  C  C144  1  0.377050  0.992100  0.377050  1
  C  C145  1  0.368510  0.100860  0.312500  1
  C  C146  1  0.406100  0.914500  0.406100  1
  C  C147  1  0.992100  0.622950  0.622950  1
  C  C148  1  0.100860  0.631490  0.687500  1
  C  C149  1  0.914500  0.593900  0.593900  1
  C  C150  1  0.622950  0.007900  0.377050  1
  C  C151  1  0.631490  0.899140  0.312500  1
  C  C152  1  0.593900  0.085500  0.406100  1
  C  C153  1  0.007900  0.377050  0.622950  1
  C  C154  1  0.899140  0.368510  0.687500  1
  C  C155  1  0.085500  0.406100  0.593900  1
  C  C156  1  0.622950  0.377050  0.007900  1
  C  C157  1  0.687500  0.368510  0.899140  1
  C  C158  1  0.593900  0.406100  0.085500  1
  C  C159  1  0.377050  0.377050  0.992100  1
  C  C160  1  0.368510  0.312500  0.100860  1
  C  C161  1  0.406100  0.406100  0.914500  1
  C  C162  1  0.377050  0.622950  0.007900  1
  C  C163  1  0.312500  0.631490  0.899140  1
  C  C164  1  0.406100  0.593900  0.085500  1
  C  C165  1  0.622950  0.622950  0.992100  1
  C  C166  1  0.631490  0.687500  0.100860  1
  C  C167  1  0.593900  0.593900  0.914500  1
  C  C168  1  0.687500  0.631490  0.100860  1
  C  C169  1  0.631490  0.312500  0.899140  1
  C  C170  1  0.312500  0.368510  0.100860  1
  C  C171  1  0.368510  0.687500  0.899140  1
  C  C172  1  0.899140  0.687500  0.368510  1
  C  C173  1  0.899140  0.312500  0.631490  1
  C  C174  1  0.312500  0.100860  0.368510  1
  C  C175  1  0.100860  0.687500  0.631490  1
  C  C176  1  0.687500  0.899140  0.368510  1
  C  C177  1  0.100860  0.312500  0.368510  1
  C  C178  1  0.312500  0.899140  0.631490  1
  C  C179  1  0.687500  0.100860  0.631490  1
  C  C180  1  0.877050  0.507900  0.122950  1
  C  C181  1  0.868510  0.399140  0.187500  1
  C  C182  1  0.906100  0.585500  0.093900  1
  C  C183  1  0.507900  0.122950  0.877050  1
  C  C184  1  0.399140  0.131490  0.812500  1
  C  C185  1  0.585500  0.093900  0.906100  1
  C  C186  1  0.122950  0.492100  0.122950  1
  C  C187  1  0.131490  0.600860  0.187500  1
  C  C188  1  0.093900  0.414500  0.093900  1
  C  C189  1  0.492100  0.877050  0.877050  1
  C  C190  1  0.600860  0.868510  0.812500  1
  C  C191  1  0.414500  0.906100  0.906100  1
  C  C192  1  0.877050  0.492100  0.877050  1
  C  C193  1  0.868510  0.600860  0.812500  1
  C  C194  1  0.906100  0.414500  0.906100  1
  C  C195  1  0.492100  0.122950  0.122950  1
  C  C196  1  0.600860  0.131490  0.187500  1
  C  C197  1  0.414500  0.093900  0.093900  1
  C  C198  1  0.122950  0.507900  0.877050  1
  C  C199  1  0.131490  0.399140  0.812500  1
  C  C200  1  0.093900  0.585500  0.906100  1
  C  C201  1  0.507900  0.877050  0.122950  1
  C  C202  1  0.399140  0.868510  0.187500  1
  C  C203  1  0.585500  0.906100  0.093900  1
  C  C204  1  0.122950  0.877050  0.507900  1
  C  C205  1  0.187500  0.868510  0.399140  1
  C  C206  1  0.093900  0.906100  0.585500  1
  C  C207  1  0.877050  0.877050  0.492100  1
  C  C208  1  0.868510  0.812500  0.600860  1
  C  C209  1  0.906100  0.906100  0.414500  1
  C  C210  1  0.877050  0.122950  0.507900  1
  C  C211  1  0.812500  0.131490  0.399140  1
  C  C212  1  0.906100  0.093900  0.585500  1
  C  C213  1  0.122950  0.122950  0.492100  1
  C  C214  1  0.131490  0.187500  0.600860  1
  C  C215  1  0.093900  0.093900  0.414500  1
  C  C216  1  0.187500  0.131490  0.600860  1
  C  C217  1  0.131490  0.812500  0.399140  1
  C  C218  1  0.812500  0.868510  0.600860  1
  C  C219  1  0.868510  0.187500  0.399140  1
  C  C220  1  0.399140  0.187500  0.868510  1
  C  C221  1  0.399140  0.812500  0.131490  1
  C  C222  1  0.812500  0.600860  0.868510  1
  C  C223  1  0.600860  0.187500  0.131490  1
  C  C224  1  0.187500  0.399140  0.868510  1
  C  C225  1  0.600860  0.812500  0.868510  1
  C  C226  1  0.812500  0.399140  0.131490  1
  C  C227  1  0.187500  0.600860  0.131490  1
  N  N228  1  0.409730  0.968320  0.682780  1
  N  N229  1  0.968320  0.590270  0.317220  1
  N  N230  1  0.590270  0.031680  0.682780  1
  N  N231  1  0.031680  0.409730  0.317220  1
  N  N232  1  0.409730  0.031680  0.317220  1
  N  N233  1  0.031680  0.590270  0.682780  1
  N  N234  1  0.590270  0.968320  0.317220  1
  N  N235  1  0.968320  0.409730  0.682780  1
  N  N236  1  0.682780  0.409730  0.968320  1
  N  N237  1  0.409730  0.317220  0.031680  1
  N  N238  1  0.317220  0.590270  0.968320  1
  N  N239  1  0.590270  0.682780  0.031680  1
  N  N240  1  0.682780  0.590270  0.031680  1
  N  N241  1  0.590270  0.317220  0.968320  1
  N  N242  1  0.317220  0.409730  0.031680  1
  N  N243  1  0.409730  0.682780  0.968320  1
  N  N244  1  0.968320  0.682780  0.409730  1
  N  N245  1  0.968320  0.317220  0.590270  1
  N  N246  1  0.317220  0.031680  0.409730  1
  N  N247  1  0.031680  0.682780  0.590270  1
  N  N248  1  0.682780  0.968320  0.409730  1
  N  N249  1  0.031680  0.317220  0.409730  1
  N  N250  1  0.317220  0.968320  0.590270  1
  N  N251  1  0.682780  0.031680  0.590270  1
  N  N252  1  0.909730  0.468320  0.182780  1
  N  N253  1  0.468320  0.090270  0.817220  1
  N  N254  1  0.090270  0.531680  0.182780  1
  N  N255  1  0.531680  0.909730  0.817220  1
  N  N256  1  0.909730  0.531680  0.817220  1
  N  N257  1  0.531680  0.090270  0.182780  1
  N  N258  1  0.090270  0.468320  0.817220  1
  N  N259  1  0.468320  0.909730  0.182780  1
  N  N260  1  0.182780  0.909730  0.468320  1
  N  N261  1  0.909730  0.817220  0.531680  1
  N  N262  1  0.817220  0.090270  0.468320  1
  N  N263  1  0.090270  0.182780  0.531680  1
  N  N264  1  0.182780  0.090270  0.531680  1
  N  N265  1  0.090270  0.817220  0.468320  1
  N  N266  1  0.817220  0.909730  0.531680  1
  N  N267  1  0.909730  0.182780  0.468320  1
  N  N268  1  0.468320  0.182780  0.909730  1
  N  N269  1  0.468320  0.817220  0.090270  1
  N  N270  1  0.817220  0.531680  0.909730  1
  N  N271  1  0.531680  0.182780  0.090270  1
  N  N272  1  0.182780  0.468320  0.909730  1
  N  N273  1  0.531680  0.817220  0.909730  1
  N  N274  1  0.817220  0.468320  0.090270  1
  N  N275  1  0.182780  0.531680  0.090270  1
