# generated using pymatgen
data_SiO2
_symmetry_space_group_name_H-M   'P 1'
_cell_length_a   18.71282702
_cell_length_b   14.16812288
_cell_length_c   7.42701593
_cell_angle_alpha   90.00000000
_cell_angle_beta   90.00000000
_cell_angle_gamma   90.00000000
_symmetry_Int_Tables_number   1
_chemical_formula_structural   SiO2
_chemical_formula_sum   'Si36 O72'
_cell_volume   1969.09229809
_cell_formula_units_Z   36
loop_
 _symmetry_equiv_pos_site_id
 _symmetry_equiv_pos_as_xyz
  1  'x, y, z'
loop_
 _atom_site_type_symbol
 _atom_site_label
 _atom_site_symmetry_multiplicity
 _atom_site_fract_x
 _atom_site_fract_y
 _atom_site_fract_z
 _atom_site_occupancy
  Si  Si0  1  0.154620  0.000000  0.000000  1
  Si  Si1  1  0.345380  0.500000  0.500000  1
  Si  Si2  1  0.845380  0.000000  0.000000  1
  Si  Si3  1  0.654620  0.500000  0.500000  1
  Si  Si4  1  0.274390  0.998800  0.290500  1
  Si  Si5  1  0.274390  0.001200  0.709500  1
  Si  Si6  1  0.225610  0.501200  0.790500  1
  Si  Si7  1  0.225610  0.498800  0.209500  1
  Si  Si8  1  0.725610  0.001200  0.709500  1
  Si  Si9  1  0.725610  0.998800  0.290500  1
  Si  Si10  1  0.774390  0.498800  0.209500  1
  Si  Si11  1  0.774390  0.501200  0.790500  1
  Si  Si12  1  0.083730  0.199900  0.003700  1
  Si  Si13  1  0.083730  0.800100  0.996300  1
  Si  Si14  1  0.416270  0.300100  0.503700  1
  Si  Si15  1  0.416270  0.699900  0.496300  1
  Si  Si16  1  0.916270  0.800100  0.996300  1
  Si  Si17  1  0.916270  0.199900  0.003700  1
  Si  Si18  1  0.583730  0.699900  0.496300  1
  Si  Si19  1  0.583730  0.300100  0.503700  1
  Si  Si20  1  0.331500  0.202900  0.225500  1
  Si  Si21  1  0.331500  0.797100  0.774500  1
  Si  Si22  1  0.168500  0.297100  0.725500  1
  Si  Si23  1  0.168500  0.702900  0.274500  1
  Si  Si24  1  0.668500  0.797100  0.774500  1
  Si  Si25  1  0.668500  0.202900  0.225500  1
  Si  Si26  1  0.831500  0.702900  0.274500  1
  Si  Si27  1  0.831500  0.297100  0.725500  1
  Si  Si28  1  0.682000  0.795000  0.189400  1
  Si  Si29  1  0.682000  0.205000  0.810600  1
  Si  Si30  1  0.818000  0.705000  0.689400  1
  Si  Si31  1  0.818000  0.295000  0.310600  1
  Si  Si32  1  0.318000  0.205000  0.810600  1
  Si  Si33  1  0.318000  0.795000  0.189400  1
  Si  Si34  1  0.182000  0.295000  0.310600  1
  Si  Si35  1  0.182000  0.705000  0.689400  1
  O  O36  1  0.247900  0.000000  0.500000  1
  O  O37  1  0.252100  0.500000  0.000000  1
  O  O38  1  0.752100  0.000000  0.500000  1
  O  O39  1  0.747900  0.500000  0.000000  1
  O  O40  1  0.202700  0.009900  0.178800  1
  O  O41  1  0.202700  0.990100  0.821200  1
  O  O42  1  0.297300  0.490100  0.678800  1
  O  O43  1  0.297300  0.509900  0.321200  1
  O  O44  1  0.797300  0.990100  0.821200  1
  O  O45  1  0.797300  0.009900  0.178800  1
  O  O46  1  0.702700  0.509900  0.321200  1
  O  O47  1  0.702700  0.490100  0.678800  1
  O  O48  1  0.103900  0.089900  0.001600  1
  O  O49  1  0.103900  0.910100  0.998400  1
  O  O50  1  0.396100  0.410100  0.501600  1
  O  O51  1  0.396100  0.589900  0.498400  1
  O  O52  1  0.896100  0.910100  0.998400  1
  O  O53  1  0.896100  0.089900  0.001600  1
  O  O54  1  0.603900  0.589900  0.498400  1
  O  O55  1  0.603900  0.410100  0.501600  1
  O  O56  1  0.656000  0.780400  0.979800  1
  O  O57  1  0.656000  0.219600  0.020200  1
  O  O58  1  0.844000  0.719600  0.479800  1
  O  O59  1  0.844000  0.280400  0.520200  1
  O  O60  1  0.344000  0.219600  0.020200  1
  O  O61  1  0.344000  0.780400  0.979800  1
  O  O62  1  0.156000  0.280400  0.520200  1
  O  O63  1  0.156000  0.719600  0.479800  1
  O  O64  1  0.000000  0.209000  0.037700  1
  O  O65  1  0.000000  0.791000  0.962300  1
  O  O66  1  0.500000  0.291000  0.537700  1
  O  O67  1  0.500000  0.709000  0.462300  1
  O  O68  1  0.258000  0.249400  0.285100  1
  O  O69  1  0.258000  0.750600  0.714900  1
  O  O70  1  0.242000  0.250600  0.785100  1
  O  O71  1  0.242000  0.749400  0.214900  1
  O  O72  1  0.742000  0.750600  0.714900  1
  O  O73  1  0.742000  0.249400  0.285100  1
  O  O74  1  0.758000  0.749400  0.214900  1
  O  O75  1  0.758000  0.250600  0.785100  1
  O  O76  1  0.124800  0.240300  0.182900  1
  O  O77  1  0.124800  0.759700  0.817100  1
  O  O78  1  0.375200  0.259700  0.682900  1
  O  O79  1  0.375200  0.740300  0.317100  1
  O  O80  1  0.875200  0.759700  0.817100  1
  O  O81  1  0.875200  0.240300  0.182900  1
  O  O82  1  0.624800  0.740300  0.317100  1
  O  O83  1  0.624800  0.259700  0.682900  1
  O  O84  1  0.899400  0.739300  0.167500  1
  O  O85  1  0.899400  0.260700  0.832500  1
  O  O86  1  0.600600  0.760700  0.667500  1
  O  O87  1  0.600600  0.239300  0.332500  1
  O  O88  1  0.100600  0.260700  0.832500  1
  O  O89  1  0.100600  0.739300  0.167500  1
  O  O90  1  0.399400  0.239300  0.332500  1
  O  O91  1  0.399400  0.760700  0.667500  1
  O  O92  1  0.329100  0.087900  0.246200  1
  O  O93  1  0.329100  0.912100  0.753800  1
  O  O94  1  0.170900  0.412100  0.746200  1
  O  O95  1  0.170900  0.587900  0.253800  1
  O  O96  1  0.670900  0.912100  0.753800  1
  O  O97  1  0.670900  0.087900  0.246200  1
  O  O98  1  0.829100  0.587900  0.253800  1
  O  O99  1  0.829100  0.412100  0.746200  1
  O  O100  1  0.684600  0.904000  0.247700  1
  O  O101  1  0.684600  0.096000  0.752300  1
  O  O102  1  0.815400  0.596000  0.747700  1
  O  O103  1  0.815400  0.404000  0.252300  1
  O  O104  1  0.315400  0.096000  0.752300  1
  O  O105  1  0.315400  0.904000  0.247700  1
  O  O106  1  0.184600  0.404000  0.252300  1
  O  O107  1  0.184600  0.596000  0.747700  1
