# generated using pymatgen
data_Fe3H6(C3O4)4
_symmetry_space_group_name_H-M   'P 1'
_cell_length_a   13.88146450
_cell_length_b   13.88451444
_cell_length_c   12.67427712
_cell_angle_alpha   90.00000000
_cell_angle_beta   90.00000000
_cell_angle_gamma   120.00000000
_symmetry_Int_Tables_number   1
_chemical_formula_structural   Fe3H6(C3O4)4
_chemical_formula_sum   'Fe6 H12 C24 O32'
_cell_volume   2115.53304436
_cell_formula_units_Z   2
loop_
 _symmetry_equiv_pos_site_id
 _symmetry_equiv_pos_as_xyz
  1  'x, y, z'
loop_
 _atom_site_type_symbol
 _atom_site_label
 _atom_site_symmetry_multiplicity
 _atom_site_fract_x
 _atom_site_fract_y
 _atom_site_fract_z
 _atom_site_occupancy
  Fe  Fe0  1  0.748461  0.251578  0.250000  1
  Fe  Fe1  1  0.748422  0.496883  0.250000  1
  Fe  Fe2  1  0.503117  0.251539  0.250000  1
  Fe  Fe3  1  0.251578  0.748461  0.750000  1
  Fe  Fe4  1  0.496883  0.748422  0.750000  1
  Fe  Fe5  1  0.251539  0.503117  0.750000  1
  H  H6  1  0.463106  0.926205  0.097748  1
  H  H7  1  0.073795  0.536900  0.097748  1
  H  H8  1  0.463100  0.536895  0.097748  1
  H  H9  1  0.463106  0.926205  0.402252  1
  H  H10  1  0.073795  0.536900  0.402252  1
  H  H11  1  0.463100  0.536895  0.402252  1
  H  H12  1  0.926205  0.463106  0.902252  1
  H  H13  1  0.536900  0.073795  0.902252  1
  H  H14  1  0.536895  0.463100  0.902252  1
  H  H15  1  0.926205  0.463106  0.597748  1
  H  H16  1  0.536900  0.073795  0.597748  1
  H  H17  1  0.536895  0.463100  0.597748  1
  C  C18  1  0.554817  0.109572  0.114300  1
  C  C19  1  0.890428  0.445245  0.114300  1
  C  C20  1  0.554755  0.445183  0.114300  1
  C  C21  1  0.554817  0.109572  0.385700  1
  C  C22  1  0.890428  0.445245  0.385700  1
  C  C23  1  0.554755  0.445183  0.385700  1
  C  C24  1  0.109572  0.554817  0.885700  1
  C  C25  1  0.445245  0.890428  0.885700  1
  C  C26  1  0.445183  0.554755  0.885700  1
  C  C27  1  0.109572  0.554817  0.614300  1
  C  C28  1  0.445245  0.890428  0.614300  1
  C  C29  1  0.445183  0.554755  0.614300  1
  C  C30  1  0.501505  0.002960  0.052879  1
  C  C31  1  0.997040  0.498545  0.052879  1
  C  C32  1  0.501455  0.498495  0.052879  1
  C  C33  1  0.501505  0.002960  0.447121  1
  C  C34  1  0.997040  0.498545  0.447121  1
  C  C35  1  0.501455  0.498495  0.447121  1
  C  C36  1  0.002960  0.501505  0.947121  1
  C  C37  1  0.498545  0.997040  0.947121  1
  C  C38  1  0.498495  0.501455  0.947121  1
  C  C39  1  0.002960  0.501505  0.552879  1
  C  C40  1  0.498545  0.997040  0.552879  1
  C  C41  1  0.498495  0.501455  0.552879  1
  O  O42  1  0.666667  0.333333  0.250000  1
  O  O43  1  0.333333  0.666667  0.750000  1
  O  O44  1  0.494020  0.149382  0.143952  1
  O  O45  1  0.850618  0.344638  0.143952  1
  O  O46  1  0.655362  0.505980  0.143952  1
  O  O47  1  0.494020  0.149382  0.356048  1
  O  O48  1  0.850618  0.344638  0.356048  1
  O  O49  1  0.655362  0.505980  0.356048  1
  O  O50  1  0.149382  0.494020  0.856048  1
  O  O51  1  0.344638  0.850618  0.856048  1
  O  O52  1  0.505980  0.655362  0.856048  1
  O  O53  1  0.149382  0.494020  0.643952  1
  O  O54  1  0.344638  0.850618  0.643952  1
  O  O55  1  0.505980  0.655362  0.643952  1
  O  O56  1  0.655426  0.149388  0.143950  1
  O  O57  1  0.850612  0.506038  0.143950  1
  O  O58  1  0.493962  0.344574  0.143950  1
  O  O59  1  0.655426  0.149388  0.356050  1
  O  O60  1  0.850612  0.506038  0.356050  1
  O  O61  1  0.493962  0.344574  0.356050  1
  O  O62  1  0.149388  0.655426  0.856050  1
  O  O63  1  0.506038  0.850612  0.856050  1
  O  O64  1  0.344574  0.493962  0.856050  1
  O  O65  1  0.149388  0.655426  0.643950  1
  O  O66  1  0.506038  0.850612  0.643950  1
  O  O67  1  0.344574  0.493962  0.643950  1
  O  O68  1  0.827939  0.172225  0.250000  1
  O  O69  1  0.827775  0.655714  0.250000  1
  O  O70  1  0.344286  0.172061  0.250000  1
  O  O71  1  0.172225  0.827939  0.750000  1
  O  O72  1  0.655714  0.827775  0.750000  1
  O  O73  1  0.172061  0.344286  0.750000  1
