# generated using pymatgen
data_NiHC4O3
_symmetry_space_group_name_H-M   'P 1'
_cell_length_a   25.63573801
_cell_length_b   25.63587484
_cell_length_c   6.72999493
_cell_angle_alpha   90.00000000
_cell_angle_beta   90.00000000
_cell_angle_gamma   120.00000000
_symmetry_Int_Tables_number   1
_chemical_formula_structural   NiHC4O3
_chemical_formula_sum   'Ni18 H18 C72 O54'
_cell_volume   3830.35772662
_cell_formula_units_Z   18
loop_
 _symmetry_equiv_pos_site_id
 _symmetry_equiv_pos_as_xyz
  1  'x, y, z'
loop_
 _atom_site_type_symbol
 _atom_site_label
 _atom_site_symmetry_multiplicity
 _atom_site_fract_x
 _atom_site_fract_y
 _atom_site_fract_z
 _atom_site_occupancy
  Ni  Ni0  1  0.018170  0.713530  0.188130  1
  Ni  Ni1  1  0.286470  0.304640  0.188130  1
  Ni  Ni2  1  0.695360  0.981830  0.188130  1
  Ni  Ni3  1  0.981830  0.286470  0.811870  1
  Ni  Ni4  1  0.713530  0.695360  0.811870  1
  Ni  Ni5  1  0.304640  0.018170  0.811870  1
  Ni  Ni6  1  0.684837  0.046863  0.521463  1
  Ni  Ni7  1  0.953137  0.637973  0.521463  1
  Ni  Ni8  1  0.362027  0.315163  0.521463  1
  Ni  Ni9  1  0.648497  0.619803  0.145203  1
  Ni  Ni10  1  0.380197  0.028693  0.145203  1
  Ni  Ni11  1  0.971307  0.351503  0.145203  1
  Ni  Ni12  1  0.351503  0.380197  0.854797  1
  Ni  Ni13  1  0.619803  0.971307  0.854797  1
  Ni  Ni14  1  0.028693  0.648497  0.854797  1
  Ni  Ni15  1  0.315163  0.953137  0.478537  1
  Ni  Ni16  1  0.046863  0.362027  0.478537  1
  Ni  Ni17  1  0.637973  0.684837  0.478537  1
  H  H18  1  0.170670  0.804330  0.193330  1
  H  H19  1  0.195670  0.366340  0.193330  1
  H  H20  1  0.633660  0.829330  0.193330  1
  H  H21  1  0.829330  0.195670  0.806670  1
  H  H22  1  0.804330  0.633660  0.806670  1
  H  H23  1  0.366340  0.170670  0.806670  1
  H  H24  1  0.837337  0.137663  0.526663  1
  H  H25  1  0.862337  0.699673  0.526663  1
  H  H26  1  0.300327  0.162663  0.526663  1
  H  H27  1  0.495997  0.529003  0.140003  1
  H  H28  1  0.470997  0.966993  0.140003  1
  H  H29  1  0.033007  0.504003  0.140003  1
  H  H30  1  0.504003  0.470997  0.859997  1
  H  H31  1  0.529003  0.033007  0.859997  1
  H  H32  1  0.966993  0.495997  0.859997  1
  H  H33  1  0.162663  0.862337  0.473337  1
  H  H34  1  0.137663  0.300327  0.473337  1
  H  H35  1  0.699673  0.837337  0.473337  1
  C  C36  1  0.260070  0.914730  0.085340  1
  C  C37  1  0.085270  0.345340  0.085340  1
  C  C38  1  0.654660  0.739930  0.085340  1
  C  C39  1  0.739930  0.085270  0.914660  1
  C  C40  1  0.914730  0.654660  0.914660  1
  C  C41  1  0.345340  0.260070  0.914660  1
  C  C42  1  0.926737  0.248063  0.418673  1
  C  C43  1  0.751937  0.678673  0.418673  1
  C  C44  1  0.321327  0.073263  0.418673  1
  C  C45  1  0.406597  0.418603  0.247993  1
  C  C46  1  0.581397  0.987993  0.247993  1
  C  C47  1  0.012007  0.593403  0.247993  1
  C  C48  1  0.593403  0.581397  0.752007  1
  C  C49  1  0.418603  0.012007  0.752007  1
  C  C50  1  0.987993  0.406597  0.752007  1
  C  C51  1  0.073263  0.751937  0.581327  1
  C  C52  1  0.248063  0.321327  0.581327  1
  C  C53  1  0.678673  0.926737  0.581327  1
  C  C54  1  0.212570  0.875030  0.960330  1
  C  C55  1  0.124970  0.337540  0.960330  1
  C  C56  1  0.662460  0.787430  0.960330  1
  C  C57  1  0.787430  0.124970  0.039670  1
  C  C58  1  0.875030  0.662460  0.039670  1
  C  C59  1  0.337540  0.212570  0.039670  1
  C  C60  1  0.879237  0.208363  0.293663  1
  C  C61  1  0.791637  0.670873  0.293663  1
  C  C62  1  0.329127  0.120763  0.293663  1
  C  C63  1  0.454097  0.458303  0.373003  1
  C  C64  1  0.541697  0.995793  0.373003  1
  C  C65  1  0.004207  0.545903  0.373003  1
  C  C66  1  0.545903  0.541697  0.626997  1
  C  C67  1  0.458303  0.004207  0.626997  1
  C  C68  1  0.995793  0.454097  0.626997  1
  C  C69  1  0.120763  0.791637  0.706337  1
  C  C70  1  0.208363  0.329127  0.706337  1
  C  C71  1  0.670873  0.879237  0.706337  1
  C  C72  1  0.123270  0.775530  0.910330  1
  C  C73  1  0.224470  0.347740  0.910330  1
  C  C74  1  0.652260  0.876730  0.910330  1
  C  C75  1  0.876730  0.224470  0.089670  1
  C  C76  1  0.775530  0.652260  0.089670  1
  C  C77  1  0.347740  0.123270  0.089670  1
  C  C78  1  0.789937  0.108863  0.243663  1
  C  C79  1  0.891137  0.681073  0.243663  1
  C  C80  1  0.318927  0.210063  0.243663  1
  C  C81  1  0.543397  0.557803  0.423003  1
  C  C82  1  0.442197  0.985593  0.423003  1
  C  C83  1  0.014407  0.456603  0.423003  1
  C  C84  1  0.456603  0.442197  0.576997  1
  C  C85  1  0.557803  0.014407  0.576997  1
  C  C86  1  0.985593  0.543397  0.576997  1
  C  C87  1  0.210063  0.891137  0.756337  1
  C  C88  1  0.108863  0.318927  0.756337  1
  C  C89  1  0.681073  0.789937  0.756337  1
  C  C90  1  0.168170  0.816730  0.035340  1
  C  C91  1  0.183270  0.351440  0.035340  1
  C  C92  1  0.648560  0.831830  0.035340  1
  C  C93  1  0.831830  0.183270  0.964660  1
  C  C94  1  0.816730  0.648560  0.964660  1
  C  C95  1  0.351440  0.168170  0.964660  1
  C  C96  1  0.834837  0.150063  0.368673  1
  C  C97  1  0.849937  0.684773  0.368673  1
  C  C98  1  0.315227  0.165163  0.368673  1
  C  C99  1  0.498497  0.516603  0.297993  1
  C  C100  1  0.483397  0.981893  0.297993  1
  C  C101  1  0.018107  0.501503  0.297993  1
  C  C102  1  0.501503  0.483397  0.702007  1
  C  C103  1  0.516603  0.018107  0.702007  1
  C  C104  1  0.981893  0.498497  0.702007  1
  C  C105  1  0.165163  0.849937  0.631327  1
  C  C106  1  0.150063  0.315227  0.631327  1
  C  C107  1  0.684773  0.834837  0.631327  1
  O  O108  1  0.262870  0.899130  0.265340  1
  O  O109  1  0.100870  0.363740  0.265340  1
  O  O110  1  0.636260  0.737130  0.265340  1
  O  O111  1  0.737130  0.100870  0.734660  1
  O  O112  1  0.899130  0.636260  0.734660  1
  O  O113  1  0.363740  0.262870  0.734660  1
  O  O114  1  0.929537  0.232463  0.598673  1
  O  O115  1  0.767537  0.697073  0.598673  1
  O  O116  1  0.302927  0.070463  0.598673  1
  O  O117  1  0.403797  0.434203  0.067993  1
  O  O118  1  0.565797  0.969593  0.067993  1
  O  O119  1  0.030407  0.596203  0.067993  1
  O  O120  1  0.596203  0.565797  0.932007  1
  O  O121  1  0.434203  0.030407  0.932007  1
  O  O122  1  0.969593  0.403797  0.932007  1
  O  O123  1  0.070463  0.767537  0.401327  1
  O  O124  1  0.232463  0.302927  0.401327  1
  O  O125  1  0.697073  0.929537  0.401327  1
  O  O126  1  0.300270  0.964230  0.020330  1
  O  O127  1  0.035770  0.336040  0.020330  1
  O  O128  1  0.663960  0.699730  0.020330  1
  O  O129  1  0.699730  0.035770  0.979670  1
  O  O130  1  0.964230  0.663960  0.979670  1
  O  O131  1  0.336040  0.300270  0.979670  1
  O  O132  1  0.966937  0.297563  0.353663  1
  O  O133  1  0.702437  0.669373  0.353663  1
  O  O134  1  0.330627  0.033063  0.353663  1
  O  O135  1  0.366397  0.369103  0.313003  1
  O  O136  1  0.630897  0.997293  0.313003  1
  O  O137  1  0.002707  0.633603  0.313003  1
  O  O138  1  0.633603  0.630897  0.686997  1
  O  O139  1  0.369103  0.002707  0.686997  1
  O  O140  1  0.997293  0.366397  0.686997  1
  O  O141  1  0.033063  0.702437  0.646337  1
  O  O142  1  0.297563  0.330627  0.646337  1
  O  O143  1  0.669373  0.966937  0.646337  1
  O  O144  1  0.082870  0.721130  0.979330  1
  O  O145  1  0.278870  0.361740  0.979330  1
  O  O146  1  0.638260  0.917130  0.979330  1
  O  O147  1  0.917130  0.278870  0.020670  1
  O  O148  1  0.721130  0.638260  0.020670  1
  O  O149  1  0.361740  0.082870  0.020670  1
  O  O150  1  0.749537  0.054463  0.312663  1
  O  O151  1  0.945537  0.695073  0.312663  1
  O  O152  1  0.304927  0.250463  0.312663  1
  O  O153  1  0.583797  0.612203  0.354003  1
  O  O154  1  0.387797  0.971593  0.354003  1
  O  O155  1  0.028407  0.416203  0.354003  1
  O  O156  1  0.416203  0.387797  0.645997  1
  O  O157  1  0.612203  0.028407  0.645997  1
  O  O158  1  0.971593  0.583797  0.645997  1
  O  O159  1  0.250463  0.945537  0.687337  1
  O  O160  1  0.054463  0.304927  0.687337  1
  O  O161  1  0.695073  0.749537  0.687337  1
